src/applications/dynamic_simulation/SJin_3g9b.raw
0  100.000


      1, 3,     0.000,     0.000,     0.000,     0.000,   1,1.04000,   0.0000,'bus-1       ',100.0000,   2
      2, 2,     0.000,     0.000,     0.000,     0.000,   1,1.02533, 10.03009,'bus-2       ',100.0000,   2
      3, 2,     0.000,     0.000,     0.000,     0.000,   1,1.02536,  5.21579,'bus-3       ',100.0000,   2
      4, 1,     0.000,     0.000,     0.000,     0.000,   1,1.00186, -2.12265,'bus-4       ',100.0000,   2
      5, 1,    90.000,    30.000,     0.000,     0.000,   1,0.98163, -3.65383,'bus-5       ',100.0000,   2
      6, 1,     0.000,     0.000,     0.000,     0.000,   1,1.00252,  2.43838,'bus-6       ',100.0000,   2
      7, 1,   100.000,    35.000,     0.000,     0.000,   1,0.98127,  1.05485,'bus-7       ',100.0000,   2
      8, 1,     0.000,     0.000,     0.000,     0.000,   1,0.99356,  4.29081,'bus-8       ',100.0000,   2
      9, 1,   125.000,    50.000,     0.000,     0.000,   1,0.96619, -4.05683,'bus-9       ',100.0000,   2
0
     1,'1 ',    67.000,    70.108, 99990.000, -9999.000,1.04000,     0,   100.000,   0.00000,   1.00000,   0.00000,   0.00000,   1.00000,1,  100.0,     0.000,     0.000,	0.00000,	0.00000,	0.06080,	0.00000
     2,'1 ',   163.000,    60.287, 99990.000, -9999.000,1.02533,     0,   100.000,   0.00000,   1.00000,   0.00000,   0.00000,   1.00000,1,  100.0,     0.000,     0.000,	0.00000,	0.00000,	0.11980,	0.00000
     3,'1 ',    85.000,    42.023, 99990.000, -9999.000,1.02536,     0,   100.000,   0.00000,   1.00000,   0.00000,   0.00000,   1.00000,1,  100.0,     0.000,     0.000,	0.00000,	0.00000,	0.18130,	0.00000
0 / END OF GENERATOR DATA, BEGIN BRANCH DATA
      1,     4,'BL',  0.00000,  0.05760,  0.00000,   0.00,   0.00,   0.00,0.00000,  0.000, 0.00000, 0.00000,00.00000,00.00000, 1
      2,     8,'BL',  0.00000,  0.06250,  0.00000,   0.00,   0.00,   0.00,0.00000,  0.000, 0.00000, 0.00000,00.00000,00.00000, 1
      3,     6,'BL',  0.00000,  0.05860,  0.00000,   0.00,   0.00,   0.00,0.00000,  0.000, 0.00000, 0.00000,00.00000,00.00000, 1
      4,     5,'BL',  0.00000,  0.09200,  0.00000,   0.00,   0.00,   0.00,0.00000,000.000, 0.00000, 0.00000, 0.00000, 0.00000, 1
      4,     9,'BL',  0.00000,  0.08500,  0.00000,   0.00,   0.00,   0.00,0.00000,000.000, 0.00000, 0.00000, 0.00000, 0.00000, 1
      5,     6,'BL',  0.00000,  0.17000,  0.00000,   0.00,   0.00,   0.00,1.00000,000.000, 0.00000, 0.00000, 0.00000, 0.00000, 1
      6,     7,'BL',  0.00000,  0.10080,  0.00000,   0.00,   0.00,   0.00,1.00000,000.000, 0.00000, 0.00000, 0.00000, 0.00000, 1
      7,     8,'BL',  0.00000,  0.07200,  0.00000,   0.00,   0.00,   0.00,1.00000,000.000, 0.00000, 0.00000, 0.00000, 0.00000, 1
      8,     9,'BL',  0.00000,  0.16100,  0.00000,   0.00,   0.00,   0.00,1.00000,000.000, 0.00000, 0.00000, 0.00000, 0.00000, 1
0 / END OF BRANCH DATA, BEGIN TRANSFORMER ADJUSTMENT DATA
0 / END OF TRANSFORMER ADJUSTMENT DATA, BEGIN AREA DATA
   1,      0,     0.0,  3.000,'            '
0 / END OF AREA DATA, BEGIN TWO-TERMINAL DC DATA
0 / END OF TWO-TERMINAL DC DATA, BEGIN SWITCHED SHUNT DATA
0 / END OF SWITCHED SHUNT DATA, BEGIN IMPEDANCE CORRECTION DATA
0 / END OF IMPEDANCE CORRECTION DATA, BEGIN MULTI-TERMINAL DC DATA
0 / END OF MULTI-TERMINAL DC DATA, BEGIN MULTI-SECTION LINE DATA
0 / END OF MULTI-SECTION LINE DATA, BEGIN ZONE DATA
    2,' 1          '
0 / END OF ZONE DATA, BEGIN INTER-AREA TRANSFER DATA
0 / END OF INTER-AREA TRANSFER DATA, BEGIN OWNER DATA
    1,'OWNER_1     '
0 / END OF OWNER DATA, BEGIN FACTS DEVICE DATA

